



simulator lang=spectre

//******************************************************************
//*technology: smos10hv
//*
//*contacts:
//*=========
//*for modeling information contact:
//*
//*wuxia li
//*characterization manager
//*
//*analog design enablement (ade)
//*characterization and modeling group
//*
//*
//*technology information:
//*=======================
//*for device information contact:
//*smartmos technology center
//*smos development group
//*
//*qualified for simulator versions
//*==============================
//*mica	: 18.1.0
//*spectre: 23.10.562.isr11
//*simkit	: 6.1
//*afs 	: 2024.2_1 (siemens-amsv-)
//*
//*
//*revision history:
//*v3q_1  8/22/25    spice minor release v17.1 to include soa model udpates
//*                     soa rules updated based on v3.17er_06122025 provided by reliability team.
//*                       a>. temperature coefficient for diode fwd limits changes to 0.0006 from 0.006
//*                       b>. add fwd limit on v(b,d) for mos
//*                     updated parcheck2.va file to enable severity function for rpoly, rpoly0, rpoly_1meg.
//*v3q_0  10/21/24    final model release for v17
//*                     silicon based model update for nmos120
//*                     silicon based model update for pld120
//*                     silicon based model update for cfr120 and cfr120_m1m2m3
//*                     dc soa switched into multi-level method. some rules are updated including:
//*                         1, sub related soa rules are changed from -40v ~ 100v to -70v ~ 120v.
//*                         2, hv mos fwd voltage update from 1.2v to 5.5v for vsd/vds.
//*                         3, pmos10 and pld10b rules are updated for parameter gt_90v related.
//*                     esd soa rule update for nld90b
//*                     add fault model for npn_b.
//*                     add gt_90v instance parameter for pmos10 to support new soa rules
//*                     add 3rd temperature coefficient and statistical model for dz5b(tkt0633393)
//*                     add new model vms_105(keep vms_115 as it is,will remove vms_115 in future release, tkt0647379)
//*
//*v3p_2  02/23/24    final model release for v16.2
//*                     fixed a prestoplus aging model bug.
//*
//*v3p_1  01/31/24    final model release for v16.1
//*                     added new vms checkers vms_30, vms_60, vms_115 and vms_165.(tkt0636343)
//*
//*v3p_0  10/30/23    final model release for v16
//*                     updated paper model of nmos120 based on limited silicon(tkt0619047)
//*                     updated paper model of pld120 based on limited silicon(tkt0619048)
//*                     updated paper model of cfr120 and cfr120_m1m2m3 based on limited silicon, updated ppf parameters as well(tkt0619049)
//*                     added new instance parameter gt_90v for pld10b to support dt upsize pcell feature(tkt0624551)
//*                     added dc soa and esd soa for nmos120, pld120, cfr120 and cfr120_m1m2m3
//*                     updated some dc soa rules:
//*                       -in dc soa, mosfet v(g,d), v(d,s), v(s,b) rules are updated.
//*                       -in dc soa, v(well,t) and v(wll,b) rules are added for cfr devices.
//*
//*v3o_1  08/30/23    final model release for v15.1
//*                     added silicon based model for dpldd(tkt0619044).
//*                     added skeleton model for nmos120(tkt0619047).
//*                     added skeleton model for pld120(tkt0619048).
//*                     added skeleton model for cfr120 and cfr120_m1m2m3(tkt0619049).
//*                     fixed lpe flag issue which impact parasitic cap for nmos, pmos, nmos_ll, pmos_ll(tkt0618599).
//*
//*v3o_0  05/20/23    final model release for v15
//*                     updated wpe, cv and junction models for nmos_ull and pmos_ull(tkt0618189).
//*                     model re-casing for nmos_ull and pmos_ull(tkt0618190).
//*                     roll back dc soa model to old soa monitors(from multi-level check monitors).
//*
//* n/a   02/18/23    final model release for v14.2(patch version based on v14.1)
//*                     fixed two soa model issues(1.diode soa model implementation does not match with rule definition,
//*                                                2.vth polar type(pmosvthsign) is missing in soa implementation. )
//*v3n_1  11/15/22    final model release for v14.1
//*                     updated all soa models based on multi-check monitors(tkt0600934)
//*                     model re-casing for all fringe capacitors including: cfrlv, cfrlv_m1m2m3, cfr45, cfr45_m1m2m3, cfr90, cfr90_m1m2m3(tkt0598169)
//*                     updated pld65 based on silicon (tkt0600930)
//*                     corrected lpe flag for dz5b in post-layout circuit(action from pdk). corrected lpe flag equation for pld90, pld90b and pld100 in model(tkt0589015)
//*                     fixed the prestoplus unit issue(tkt0592876)
//*
//*v3n_0  05/05/22    final model release for v14
//*                     added paper model for pld65.
//*                     updated tc variation model for rpoly0 based on silicon(tkt055163).
//*                     added soa and esdsoa model for new component pld65. updated esdsoa rules for all components(tkt0587124).
//*
//*v3m_1  12/17/21    final model release for v13.1
//*                     re-casing of rpoly0, nld5_lvt, nld30b, pld30b, pld45b, pld90b, pmos_ana and cglv (tkt0573024).
//*                     re-casing of nmos_ull and pmos_ull (tkt0573025).
//*                     add tc variation guess model for rpoly0 based on smos90hv mapping data (tkt055163).
//*                     add prestoplus aging model for all devices. both relimo and prestoplus model systems co-exist (tkt0573023).
//*                         (two new sections, smos10hv_enable_aging and smos10hv_disable_aging were added for prestoplus model.)
//*
//*v3m_0  09/24/21    final model release for v13
//*                     updated nld100 and pld100 models with p39e si (tkt0573018).
//*                     fix nmos convergence issue by updated wphn a0 parameters (tkt570926).
//*                     updated setup file for fixed spectre cannot directly switch to afs in adel, only can first switch to mica, then switch to afs (tkt0552589).
//*                     re-casing pld45 (tkt0573021).
//*                     aging model switch to orestoplus from relimo (tkt0573023).
//*                     update pmos_ana pbti moel (tkt0536759).
//*                     fix nld10 cfrx model bug (tkt0573919).
//*                     removed ccdsub of rpoly, rpoly_1meg, rhvpw, rphv (dft0573665a).
//*
//*v3l_3  03/11/21    final model release for v12.1
//*                     add dummy gates models for all mosfets and powermos in v12.1 for nld10, nld30b, nld45b, nld45b_he, pld45b, pmoshs45b, nld65b, nld90b, nld45b_tlp, nmos45b, pmos45b, pld30b nmos90b, pmos90b, pld90b (dft0528978b).
//*                     improved cgd/cgg of nld90b and pld90b (tkt0551950).
//*                     add pnp and pnp_iso eb junction punch through models with global on/off switch default on (tkt0556323).
//*                     add againg model for pnp, pnp_iso (tkt0518157).
//*                     add aging model for pmos90b and pld90b (tkt0529813).
//*                     improved gate leakage model of nmos/pmos, nmos_ll/pmos_ll (tkt0547075).
//*                     updates to nmos and pmos sti, wpe, dte model based on n86y silicon (tkt0506853).
//*                     updates to nmos_ll and pmos_ll cgg to let the model have the same ratio as silicon between hvt and svt (tkt0556324).
//*                     updates to pmos_ll nsig & sig to get rid of the outlier in designer's monte carlo simulations (tkt0554283).
//*                     improved nmos5, pmos5 sti models (tkt0556326).
//*                     update nmos3_zvt sti model, update casing and dte model (tkt0542758).
//*                     re-casing nmos, pmos, nmos_ana, nmos3_zvt, nmos5, pmos90b (tkt0517435).
//*                     add print_function_nxp.va in order to print fault leakage model on/off info in simulation log file.
//*                     co-simulation c90lcfs 4m1t and s10hv 4m1t, flow team solved in cadence, no need additional co-sim model file (tkt0541060).
//*                     recasing rm2,rm3,rm4,cfrlv,cfrlv_m1m2m3,cfr45,cfr45_m1m2m3,cfr90,cfr90_m1m2m3,cdpf_m1m2m3,cghvf,cghvf_m1m2m3 required by device team due to backend process spec changed (tkt0557678).
//*
//*v3l_2  12/17/20    final model release for v12
//*                     update nmos_ull and pmos_ull based on re-cut n94x si (tkt0545702).
//*                     update nld10 off state aging model (tkt0552924).
//*
//*v3l_1  11/04/20    final model release for v12_ea3
//*                     add new device model nmos_ull and pmos_ull (tkt0545702).
//*                     add new device model nld100 and pld100 (tkt0545308).
//*                     add fault injection resistance model in nmos, nmos_ana, pmos, and pld5 (tkt0541466).
//*                     update pld5 sti moedel and added sti_dummy instance parameter with dummy_gate model (tkt052980).
//*                     added new model cpwtub_box_sub_float_10hv in both section substrate_cap and substrate_cap_simple to fix crashes or huge simulation time when pwell empty of pwtub (tkt0537895).
//*                     remove mosfet_legacy and powermos_legacy sections (tkt0537390)
//*                     add secton smos10hv_xpart_default/enable for nmos/pmos, nmos_ll/pmos_ll, nmos_ana, pmos_ana, nmos3_zvt, nmos5/pmos5, nmos_ull/pmos_ull (tkt0537460)
//*                     remove rpoly_compress=0 in base section (dft0532757a)
//*                     remove soa monitors variloga paths from sections of soa_disable, esdsoa_disable, relimo_disable, risk_assessment_disable. add new section risk_assessment_disable_afs (tkt0534632)
//*                     fix bug nmos10 delr_thesato_nmos10_sphv_10hv (tkt0539566)
//*                     fix all p-type pbti model of pld5,pld10,pld10b,pld30,pld30b,pld45,pld45b,pld90,pld90b,pmos5,pmos10,pmos45,pmos45b,pmoshs45,pmoshs45b,pmos90,pmos90b, model incorrectly uses gate-sub voltage instead of gate-body voltage for estmated the vth shift.   also correct pmos_ana pbti model (tkt0536759)
//*                     add noscale=1 in mosvar model of cghv,cghvf,cghvf_m1m2m3 (tkt0540713)
//*                     change all veriloga paths from absolute path to relative path for model modular release (tkt0520234).
//*                     remove model version number in release model folder for model modular release, but keep model version in model generation system for easy maintance (tkt0541511)
//*                     fixed bug which missed pld30b sphv nsig oarameters in section case (tkt0549522)
//*
//*
//*v3k_0  10/15/19    final model release for ams3.11
//*                     switch model to sphv from bsim,  nmos10, pmos10, nld10, pld30b, nld45b_he, nld45b_tlp, pld45b, pmos45b, pmoshs45b, nmos90b (tkt0512297)
//*                     dz5 ir=100ua bv model should be accuracy to bv=5.07v. (tkt0512099)
//*                     sphv junction model updated, (code already fix in simkit 5.1.1.1),  (dft0509716a).
//*                     currently soa cannot implement beta drift option in soa, need to add instance parameter for example drift=0 or 1 in npn,npn_b, pnp and pnp_iso,use this switch select different soa rule in drft file.(tkt0512307)
//*                     device team asks to re-casing drsf45b and drsf90b in ams3.11 in order to make cpk >1.67, currently about 1.55.(tkt0512097)
//*                     mm model check and fix if not good, cdp, cdpf, cglv,cghv,cdpf_m1m2m3, cghvf, cghvf_m1m2m3 (tkt393029)
//*                     update  pld10b pcell with  add dummy gate. model:  add dummy gate model (tkt0517260) (si n59y).
//*                     update pmos10 pcell with add dummy gate, model: add dummy gate model (tkt0517261) (si n94z)
//*                     npn_b as new device for leakage outlier fix,  release new pcell and model (tkt0517268) (si n94z)
//*                     update rphv mm model ( data on si n94z) ( tkt0521741).
//*                     fix npn drr scaling issue (tkt0517558).
//*                     pnp_iso mm, dc, cv drr  model update ( data on n86y). (tkt393028)
//*                     update bti model for all dgo devices (tkt0518153).
//*                     added aging models for pmos45b, pmoshs45b, pmos90b, pld10b,pld30b,pld45b,pld90b,new model with new equations (tkt0518154).
//*                     added aging models for nld10,nld90b,nmos90b with existing model with existing equations. (tkt0518156).
//*                     multi-ng model updated for nmos45b,nld45b, nld65b,pmos90b,nmos3_zvt, and nld30b (tkt0519901).
//*                     cth equation fix for powermos.(tkt0519426)
//*                     update dummy gate model for nld5 and nld5_lvt (tkt0520121)
//*                     add oxide risk assessment enable/disable section (tkt0524367)
//*                     add temperature function in aging model (both nbti and hci) (tkt356002).
//*                     dz5 pcell add 7um betwwen dpn to teench, but model didn't do any thing on this.(tkt0510438)
//*                     add new device dz5b model (tkt0521761).
//*                     model gisl for nmos45b and pmos90b (tkt0523289).
//*                     add scale factor to mosvar model (tkt0524761).
//*                     add fault_dz5_leakage_outlier in dz5 model instance parameter, and fault_dz5b_leakage_outlier in dz5b model instance parameter, but not link to cdf and use descover tool to simulate outliner.
//*                     change nmos_ll and pmos_ll as/np to as, ps/np to ps, ad/np to ad, pd/np to pd in as,ps,ad/pd equation for correct bug.
//*                     move as=0, ps=0, ad=0 and pd=0 of nmos10 and pmos10 from instance parameter to inside model due to nmos10 and pmos10 lpe will not extraction as,ps,ad,pd for sphv model.
//*
//*v3j_0   03/11/19     final model release for ams3.10
//*                     nmos_ll improvement, update sti, wpe,dte, 1/f noise (tkt393026)
//*                     pmos_ll improvement, add sub-vt kink, update sti, wpe,dte, 1/f noise (tkt393027)
//*                     pnp_iso ft fix, (tkt393028)
//*                     mismatch model update, nmos5,pmos5,nld5,pld30b,pld45, cfrlv,cfr45,cfr90,
//*                         cfrlv_m1m2m3,cfr45_m1m2m3,cfr90_m1m2m3,dpplus,dnplus(add new). (tkt393029).
//*                     1/f noise updated, nmos,pmos,nmos_ana,pmos_ana,nmos3_zvt,nmos5,pmos5,add nld5, nld5_lvt,pld5,pld30,pld45 noise model,updated rpoly,rpoly_1mg,rphv,
//*                         rphvw, updated npn, pnp, pnp_iso noise model. (tkt393030)
//*         	      validate model to 225c, pnp_iso, lgotub_sub,nwtub_sub,pwtub_sub (tkt393031)
//*        	      aging model update for nld65b,nmos45b,nld30b,pld45b and  pmos5 for nbti and pbti (tkt393032)
//*        	      add selfheat (default=1, option=0), in cdf parameters for pld10b,nld30b,nld45b,nld65b,nld90b,pld90b,nmos45b,pmos90b (tkt393034)
//*         	      remove lpe switch on rg for nld30b,pld10b,pld45b,pld30b,nld10,nld5,pld90b.  (tkt393740).
//*       	      add sti_dummy instance parameter in nld5 and nld5_lvt model, schematic cdf  (tkt368423).
//*	              pld45  of  powermos_simple section, cgd and cgg issue  (tkt393806). this ticket is applying for all simple models.
//*                     fix npn diode reverse recover (drr) model (tkt394045)
//*       	      knee current fix for nmos45b, pmos90b, nld30b, nld45b, nld65b and nld90b.(tkt0506081)
//*       	      add series resistance in dpplus and dnplus model. (tkt0506082).
//*       	      fix nld5_lvt sti and multi-ng model, improve nld5 sti and multi-ng model (tkt0513446).
//*       	      update rpoly_1meg mm model (tkt0512115).
//*                     update pld45b s sub area and perim model to micth with pld45b pcell (tkt0514363).
//*                     fixed nld30b,nld45b,nld65b s sub model to cdgontub (from cdgoptub) (tkt0514363).
//*                     update nld30b model with add bvdss_shift in bv parameter.
//*                     update nmos_ana delr_nsub_nmos_ana_10hv_bsim4.
//*                     reduced nmos_ana and pmos_ana cv parameters acj0, pcj0, chcj0 to half value.
//*                     update nmos_ll wdmu0_dte to 1.0e-7 from -1.6e-07, pmos_ll wdmu0_dte to 1.1e-7 from -1.1e-7 and wdvth_dte to -3.5e-8 from 2.5e-8.
//*
//*v3i_0   09/30/18     final model release for ams3.9
//*     	              add new pld30b, pld45b, nmos45b, pmos45b and pmoshs45b model, but only nmos45b will be sphv model,
//*                        other model will be tweaked from existing bsim3+ veriloga model and re-casing. (tkt384030)
//*                     add sti_dummy (dummy gate) instance parameters in nld5 and nld5_lvt. update sti model (tkt368423).
//*                     ddd series resistance in dnfet/dpfet (tkt375580).
//*                     npn exit saturation time model (tkt375043)
//*                     ade explorer prestoplus phase-1 user interface (tkt348444).
//*                     improve diode reverse recover model for nld5,nld5_lvt,nld10,nld45b,pld5,pld10b.pld45b (tkt381495).
//*                     sphv model re-extracted for nld45b, nld65b, nld30b, nld90b, pld90b, pmos90b (tkt386362).
//*                     update all devices cgg except pld10b and pld45 in powermos_simple section to match with corresponding devices cgg in powermos section (tkt383924)
//*                     improve pmos and nmos5 cgg (tkt384026)
//*                     nmos_ll and pmos_ll core and mm model re-extraction (tkt383922).
//*                     re-extract rm1 and rm3 models (tkt383921)
//*                     npn fix (reverse gammel) tkt385277
//*                     update nld45_he hci aging model and add nld45_tlp hci adding model (tkt386363).
//*                     add mosfet_legacy and powermos_legacy sections in ams3.9 and ams3.10 for backup new sphv models (tkt386680)
//*                     change int() to int_round
//*                     add rgate model to pld10b (tkt387460)
//*                     add lpe switch to all powermos parastic rgate resistance model (tkt389151), except nld45b,nld45b_he,nld45b_tlp,nld65b and nld90b because lpe cannot extract race track rg properly.
//*                     update cfr90 tc1 and tc2.
//*                     update cfr90_m1m2m3 tc1 and tc2.
//*                     change nsig_delr_mosfet_thick_tox_bsim3v3 to nsig_delr_mosfet_thick_tox
//*                     update npn mm model (tkt390228)
//*                     change rpoly, rhvpw, and rphv cdsub m=np to m=1.
//*                     update pnp ft model.
//*
//*v3h_0   06/25/18     final model release for ams3.8
//*                     add nld90b,pld90b,nmos90b, pmos90b, drsf45b and drsf90b models.
//*                     fix nld45_he and nld45b_he xsub parameter equation to align schematic and lpe source to sub capacitance simulation results.
//*                     fix pmos90 and pmos90b body to sub cap to align schematic and lpe source to sub capacitance simulation results.
//*                     update nld90b, nld45b, nld45b_he and nld45b_tlp (also nld90, nld45, nld45_he and nld45tlp) to fix source n+ stripe for pcells and model un-align issue.
//*                     update nld45b (also nld45) mm model.
//*                     update aging models of nld45b, nld45b_he (also nld45 and nld45_he) hci vgs>0.
//*                     tweaked rdson model and re-casing for pld90b.
//*                     updated nld5_lvt 3rd quadrat idvd model.
//*                     re-casing pmos90b model.
//*                     fix source nplus stripe equations of nld30 (nld30b), nld5_lvt, nld65 (nld65b) and pld5.
//*                     fix nld45_he (nld45b_he) lpe and schematic results difference of source to body cap.
//*                     update nmos10 and pmos10 body to sub cap due to pcell removed nga.
//*                     updated pld45 cgg both powermos and powermos_simple required by ivn team.
//*                     re-casing cdpf_m1m2m3, cghvf_m1m2m3, cfrlv_m1m2m3,cfr45_m1m2m3,cfr90_m1m2m3 and rulm dut to sgpc target shift.
//*                     add pmos90 and pld90 hci_tddb model in soa model.
//*
//*v3g_0   02/28/18    final model release for ams3.7
//*                    new devices nld30b, nld45b, nld45b_he, nld45b_tlp and nld65b models copied from nld30,nld45,nld45_he,nld45_tlp and nld65 models respectivily.
//*                    integarted lspb with model file.
//*                    update hci models of nmos,nmos_ll,nmos_ana,nmos3_zvt,nmos5,nld5,nld5_lvt,nmos10,nld45,nld45_he,pmos,pmos_ll,pmos_ana,pmos5,pld5,and pmos10.
//*                    add parasitic rpoly0 model in cdp and add w to instance parameter.
//*                    add s10hv_case_sweep_enable section and update section case.
//*                    move soa monitor veriloga path in section base of dfrt file to section smos10hv_enable_soa of model file to avoid un-necessary compile time.
//*                    fix sub_box cosh function.
//*                    fix nmos90 ib temperature issue.
//*                    add a switch (moscap_enable/moscap_disable) in cglv to chioce moscap model or mosvar model, default is moscap model.
//*                    enlarge cdp,cdpf.cdpf_m1m2m3 bottom to well parastic capacitance case sig to enlarge casing window from 19% to 30%.
//*                    pld10b ppf change to recmax=50.
//*                    rename cdp,cdpf, and cdpf_m1m2m3 parasitic rpoly0 casing parameter to nsig_delr_rs_rpoly0_r3_cdp.
//*                    dte and wpe models fix for nmos_ana, pmos_ana, nmos5, pmos5.
//*                    fix nld65 drain source diode temperature sweep issue (tkt360097) with update powermos diode model to 7p3.
//*                    validated nld45, nls45_he, nld45_tlp, and nld65 model for poly flap structures based on limited si data.
//*                    add dpplus mm peper model.
//*
//*v3f_1   01/08/18    final model release for ams3.6hf1
//*                     update powermos diode veriloga model to 7p3 to fix nld65 temperature sweep issue.
//*
//*v3f_1   10/13/17    final model release for ams3.6
//*
//*                     updated pmos_ll casing for solve digital cell ac timestep too small issue.
//*                     added rpoly0 resistance paper model in cdpf and cdpf_m1m2m3.
//*                     pmos90 recasing.
//*
//*v3f_0   09/10/17    final model release for ams3.5hf4
//*
//*
//*                     added lspb function in this release. the lspb doesn't need to integrate into model file. run lspb file will convert sgpc electrical parameters to model
//*                     parameters, and make another corner model.
//*                     all models validated to 200c.
//*                     re-extract nmos3_zvt mm model.
//*                     update powerdiodev7p2_forspectre.va file for fix hidden states issue.
//*                     added gate leakage model in nmos, pmos, nmos_ll, pmos_ll, nmos_ana, and pmos_ana models.
//*                     fix pnp high temperature  current bug.
//*                     remove xcoord and ycoord in the model, and remove x and y items in smm equations of all devices.
//*                     re-casing pmos_ana required by the device team for updated fab sgpc data.
//*                     add fem model and diode reverse recover model in pld10b.
//*                     fix rm1,rm2,rm3,rm4 smm equations for metal resistor minimum geometry mc issue.
//*                     fix dte models of nmos_ana,pmos_ana, and wpe models of nmos_ana and pmos_ana.
//*                     fix model (nbti) of pmos,pmos_ana,pmos_ll,pmos5,pld5,pmos10,pld10,pld10b,pld30,pmos45,pmoshs45,pld45,pmos90,pld90.
//*                     from this version, smos10hv_ade_dfrt.micalib, monitors_mica.va, relimo_mica.va, monitors_esd_mica.va will not be updated, only used as dummy model generate files.
//*
//*
//*v3e_0   05/07/17    final model release for ams3.5
//*
//*                     update pld10b cgg and cdg to align with pld10 junction cap. add pld10b junction current and cap casing.
//*                     update pnp_iso we and le values from 7 to 6.54 and from 13 to 11.85 in soa dfrt file due to we (le) is width not conts number.
//*                     remove sgn{} and change 1e-16 to 1e-12 in cglv leakage bsource equations.
//*                     updated maxa function and added mina function.
//*                     recasing all devices for pass r-gate.
//*                     re-extracted models nmos5, pmos5, nmos_ana, and pmos_ana with bsim4.
//*                     validated nld5_lvt model.
//*                     validated cfrxx_m1m2m3 model.
//*                     added new device model pld10b.
//*                     added new model pnp_iso
//*                     added estimated mm in dz5.
//*                     added cglv leakage model in both cap and cap_simple sections.
//*                     added dskip=no in all diode models.
//*                     update diode reverse recovery veriloga model version to 7p2.va.
//*                     fix npn high tempture low current test data and model match issue.
//*                     release only spectre model files. mica will read spectre model.
//*                     from this pdk, spectre will use spectre simkit because pld10b sphvt model needs simkit.
//*                     set rpv=0 for cghv, cghvf, cghvf_m1m2m3.
//*
//*v3d_1    02/15/17  regular final model release for ams3.4
//*                   mica model no change comparing with v3d_0.  spectre model added ade mc sections, and section no_stat_mis.
//*                   spectre model added section case
//*                   (for sensitivity analysis w.r.t model parameter nsig*) and section smos10hv_case_default (parameters case=0).
//*
//*v3d_0    11/7/16   regular final model release for ams3.3
//*                    added nmos_ll and pmos_ll models.
//*                    since no mm, noise, sti, wpe and dte structures for model extraction, those models copied from nmos and pmos.
//*                    update initial assign value code of veriloga model to remove bug and wraning messages.
//*                    verified all devices on mc simulation for descover with new mc tools.
//*                    change vms_15, vms45 r to 1e18 from 1e11.
//*                    added aging model paramters in nmos and pmos models, those againg model parameters missed in ams3.2.
//*                    add soa and esd soa models for nmos_ll and pmos_ll from smoke alarm and and esd smoke alarm files.
//*                    add aging model for nmos_ll and pmos_ll by copied one from nmos and pmos.
//*                    changed gmim=0 from gmim=1e-12 in rpoly0,rpoly, rhvpv,rphv, and rpoly_1meg models.
//*		     added maxa(x,y,a) function in base section, and replaced maxmodels() function with maxa() function in
//*		     powermos diode model ik parameters for nld65,nld90,pld90,nld45_tlp,nld10,nld30,nld45,nld45_he,pld10.
//*		     the purpose is to smooth diode current in high injection region.
//*
//*v3d_0    09/21/16   early final model release for ams3.3
//*                    swap le and we of npn and pnp.
//*                    use rbp=0 to replace rbp=0.01 to fix pnp topology convergence issue.
//*                    put .control msglimit inst_tempovr 0 .endc in mica base to stop show resist temp override warning message.
//*                    fixed soa monitor bug.
//*                    fixed esd soa monitor bug.
//*                    change nmos rsh=9.8 from 0, change pmos rsh=8.3 from 0.
//*                    update qrc file with metal resistors tc2=-xxx from 0.
//*
//*v3c_1    07/13/16   final model release for ams3.2p1.
//*                    fixed nmos and pmos monte carlo leakage simulation issue. no impact on corners simulation results.
//*                    updated soa model with rulm rules, dnplus, dpplus, dnfet, dpfet, nmos, pmos, rpoly, rpoly_1meg,rhvpw, rphv.
//*v3c_0    05/16/16   final model release for ams3.2.
//*                    the nmos and pmos models re-extracted with bsim4 model in order to improve leakage current model.
//*                    the sti and wpe models are re-extracted for nmos and pmos because core model changed to bsim4 from bsim3v3.
//*                    modified nmos5 model by add drain resistor due to nmos5 is asymmetry device it should have a drain resisitance.
//*                    pnp model has been improved for saturation and high injection region over the temperature. this allows to use the device at higher bias
//*                    condition than before.
//*v3b_0    04/04/16   final  model release for ams3.1.
//*                    add vms_15 and vms45 model.
//*                    replaced cglv mosvar model by cglv moscap veriloga model to fix tkt296383 on covergence issue.
//*v3b_0    11/25/15   final  model release for ams3.1.
//*                    added rulm model.
//*                    added new devices cdpf_m1m2m3, cghvf_m1m2m3, cfrlv_m1m2m3, cfr45_m1m2m3, and cfr90_m1m2m3 for both 4m0t and 4m1ut processes.
//*                    added rulm model in soa model.
//*v3b_0    11/19/15   skeleton release for ams3.1.
//*                    added rulm model.
//*                    updated cdpf, cghvf, cfrlv, cfr45, and cfr90 with ulm option.
//*                    added rulm model in soa model.
//*v3a_0    11/09/15   update for lpe only.  rpoly, rhvpw, rphv default model handling of m1 shield for lpe
//*v3a_0    10/15/15   final model for ams3.0.
//*                    added new model nld5_lvt_10hv.
//*                    updated rphv and rpoly with m1 shield models.
//*                    updated rpoly_1meg model with r3 and m1 shield model.
//*                    updated moscap model of cglv, cghv, cghvf to mosvar model.