simulator lang=spectre

section base

ahdl_include "./veriloga/ovcheck_mos_alt.va"
ahdl_include "./veriloga/ovcheck_pwl_alt.va"
ahdl_include "./veriloga/ovcheck_ldmos_hci_tddb_alt.va"
ahdl_include "./veriloga/parcheck3.va"
ahdl_include "./veriloga/selfheating_monitor_nofeedback.va"

parameters
// global SOA parameters
+ global_tmin      = 0    // Minimum time outside of SOA before a warning is issued
+ global_tdelay    = 0    // Time after start of transient that checking is activated
+ global_vballmsg  = 1.0  // All SOA messages if set to 1 (otherwise only give an overview at the end)
+ global_stop      = 0    // Stop simulation on SOA violation when STOP==1
+ tcelsius0        = 273.15

// duration limits
+ tmaxfrac0 = 0
+ tmaxfrac1 = 0.01   //  1%
+ tmaxfrac2 = 0.10   // 10%
+ tmaxfrac3 = -1     // review

// MOS junctions
+ tref_soa        = 25
+ ap_fwd_ref      = 0.9943      // limit at tref_soa
+ ap_fwd_T        = -0.0006    // -1.0mV/degC
+ ap_fwd          = ap_fwd_ref + ap_fwd_T * (temp - tref_soa)
+ ap_no_check     = 999.00    // high value, for branches that are not monitored
+ ap_gc_lv        = 1.65      // maximum oxide voltage in LV devices

// HV devices
+ ap_gc_hv        = 5.5  // maximum oxide voltage in HV devices
+ ap_fwd_hv       = 1.2  // maximum forward junction voltage in HV devices
+ ap_gc_lv_oxrisk = 1.32 // maximum oxide voltage in HV devices for oxrisk check
+ ap_gc_hv_oxrisk = 4.4  // maximum oxide voltage in HV devices for oxrisk check

// metal resistors
+ dtmax_rm        = 5    // maximum T-rise in degC
+ theat           = 1e-7 // thermal time constant (in seconds)

endsection base


// OXrisk part

section soacheck_mos_core_oxrisk_shared
model ovcheck_mos_core_oxrisk ovcheck6
+ tmin=global_tmin tdelay=global_tdelay vballmsg=global_vballmsg stop=global_stop
+ tmaxfrac=tmaxfrac3
+ vlow1=-1.32       vhigh1=1.32           branch1="V(g,b)"      message1="Vgb_OXrisk"
+ vlow2=-1.32       vhigh2=1.32           branch2="V(g,s)"      message2="Vgs_OXrisk"       
+ vlow3=-1.32       vhigh3=1.32           branch3="V(g,d)"      message3="Vgd_OXrisk"       
endsection soacheck_mos_core_oxrisk_shared

section soacheck_mos_5v_oxrisk_shared
model ovcheck_mos_5v_oxrisk ovcheck6
+ tmin=global_tmin tdelay=global_tdelay vballmsg=global_vballmsg stop=global_stop
+ tmaxfrac=tmaxfrac3
+ vlow1=-4.4        vhigh1=4.4           branch1="V(g,b)"      message1="Vgb_OXrisk"
+ vlow2=-4.4        vhigh2=4.4           branch2="V(g,s)"      message2="Vgs_OXrisk"       
+ vlow3=-4.4        vhigh3=4.4           branch3="V(g,d)"      message3="Vgd_OXrisk"       
endsection soacheck_mos_5v_oxrisk_shared

section soacheck_cap_low_oxrisk_shared
model ovcheck_cap_low_oxrisk ovcheck
+ tmin=global_tmin tdelay=global_tdelay vballmsg=global_vballmsg stop=global_stop
+ tmaxfrac=tmaxfrac3
+ vlow=-1.32        vhigh=1.32           branch1="V(t,nw)"      message1="Vtnw_OXrisk"
endsection soacheck_cap_low_oxrisk_shared

section soacheck_cap_mid_oxrisk_shared
model ovcheck_cap_mid_oxrisk ovcheck
+ tmin=global_tmin tdelay=global_tdelay vballmsg=global_vballmsg stop=global_stop
+ tmaxfrac=tmaxfrac3
+ vlow=-4.4         vhigh=4.4            branch1="V(t,nw)"      message1="Vtnw_OXrisk"
endsection soacheck_cap_mid_oxrisk_shared

section soacheck_cap_high_oxrisk_shared
model ovcheck_cap_high_oxrisk ovcheck
+ tmin=global_tmin tdelay=global_tdelay vballmsg=global_vballmsg stop=global_stop
+ tmaxfrac=tmaxfrac3
+ vlow=-5.6         vhigh=5.6            branch1="V(t,b)"      message1="Vtb_OXrisk"
endsection soacheck_cap_high_oxrisk_shared



// Sub part for mosfet

section soacheck_mosfet_sub_shared
model ovcheck_mosfet_sub ovcheck6
+ tmin=global_tmin tdelay=global_tdelay vballmsg=global_vballmsg stop=global_stop
+ tmaxfrac=tmaxfrac0
+ vlow1=-70.0       vhigh1=120.0          branch1="V(d,sub)"
+ vlow2=-70.0       vhigh2=120.0          branch2="V(s,sub)"
+ vlow3=-70.0       vhigh3=120.0          branch3="V(b,sub)"
endsection soacheck_mosfet_sub_shared


// Sub part for caps

section soacheck_cap_sub_shared
model ovcheck_cap_sub ovcheck
+ tmin=global_tmin tdelay=global_tdelay vballmsg=global_vballmsg stop=global_stop
+ tmaxfrac=tmaxfrac0
+ vlow=-70.0        vhigh=120.0          branch1="V(nw,sub)"
endsection soacheck_cap_sub_shared

section soacheck_cap_90_well_shared
model ovcheck_cap_90_well ovcheck6
+ tmin=global_tmin tdelay=global_tdelay vballmsg=global_vballmsg stop=global_stop
+ tmaxfrac=tmaxfrac0
+ vlow1=-70.0        vhigh1=120.0          branch1="V(t,well)"
+ vlow2=-70.0        vhigh2=120.0          branch2="V(b,well)"
endsection soacheck_cap_90_well_shared

section soacheck_cap_45_well_shared
model ovcheck_cap_45_well ovcheck
+ tmin=global_tmin tdelay=global_tdelay vballmsg=global_vballmsg stop=global_stop
+ tmaxfrac=tmaxfrac0
+ vlow=-45.0        vhigh=45.0            branch1="V(b,nw)"
endsection soacheck_cap_45_well_shared

section soacheck_cap_box_sub_n_shared
model ovcheck_cap_box_sub_n ovcheck
+ tmin=global_tmin tdelay=global_tdelay vballmsg=global_vballmsg stop=global_stop
+ tmaxfrac=tmaxfrac0
+ vlow=-70.0        vhigh=120.0          branch1="V(n,sub)"
endsection soacheck_cap_box_sub_n_shared

section soacheck_cap_box_sub_p_shared
model ovcheck_cap_box_sub_p ovcheck
+ tmin=global_tmin tdelay=global_tdelay vballmsg=global_vballmsg stop=global_stop
+ tmaxfrac=tmaxfrac0
+ vlow=-70.0        vhigh=120.0          branch1="V(p,sub)"
endsection soacheck_cap_box_sub_p_shared


// Sub part for diodes

section soacheck_diode_sub_n_shared
model ovcheck_diode_sub_n ovcheck
+ tmin=global_tmin tdelay=global_tdelay vballmsg=global_vballmsg stop=global_stop
+ tmaxfrac=tmaxfrac0
+ vlow=-70.0        vhigh=120.0             branch1="V(n,sub)"
endsection soacheck_diode_sub_n_shared

section soacheck_diode_sub_p_shared
model ovcheck_diode_sub_p ovcheck
+ tmin=global_tmin tdelay=global_tdelay vballmsg=global_vballmsg stop=global_stop
+ tmaxfrac=tmaxfrac0
+ vlow=-70.0        vhigh=120.0             branch1="V(p,sub)"
endsection soacheck_diode_sub_p_shared


// Sub part for HV MOSFET devices

section soacheck_nld_sub_shared
model ovcheck_nld_sub ovcheck6
+ tmin=global_tmin tdelay=global_tdelay vballmsg=global_vballmsg stop=global_stop
+ tmaxfrac=tmaxfrac0
+ vlow1=-ap_no_check       vhigh1=120.0          branch1="V(d,sub)"
+ vlow2=-ap_no_check       vhigh2=70             branch2="V(sub,s)"
endsection soacheck_nld_sub_shared

section soacheck_pld_sub_shared
model ovcheck_pld_sub ovcheck
+ tmaxfrac=tmaxfrac0
+ tmin=global_tmin tdelay=global_tdelay vballmsg=global_vballmsg stop=global_stop
+ vlow=-70        vhigh=120.0             branch1="V(s,sub)"
endsection soacheck_pld_sub_shared

section soacheck_hv_nmos_sub_shared
model ovcheck_hv_nmos_sub ovcheck6
+ tmin=global_tmin tdelay=global_tdelay vballmsg=global_vballmsg stop=global_stop
+ tmaxfrac=tmaxfrac0
+ vlow1=-ap_no_check       vhigh1=120.0          branch1="V(d,sub)"
+ vlow2=-ap_no_check       vhigh2=30             branch2="V(sub,b)"
endsection soacheck_hv_nmos_sub_shared

section soacheck_hv_pmos_sub_shared
model ovcheck_hv_pmos_sub ovcheck
+ tmaxfrac=tmaxfrac0
+ tmin=global_tmin tdelay=global_tdelay vballmsg=global_vballmsg stop=global_stop
+ vlow=-70.0        vhigh=120.0             branch1="V(b,sub)"
endsection soacheck_hv_pmos_sub_shared



// multi-level part for mosfet

section soacheck_nmos_core_shared
model ovcheck_0 ovcheckva_mos2
+ tmin=global_tmin tdelay=global_tdelay vballmsg=global_vballmsg stop=global_stop
+ tmaxfrac=tmaxfrac0
+ vhigh_ds_on  = 1.84   	 
+ vhigh_ds_off = 3.00
+ vhigh_gc     = 2.07
+ vlow_gc      = -2.07
+ vhigh_gb_on  = ap_no_check
+ vlow_gb_on   = -ap_no_check
+ message_vds  = "AMR"
+ message_vgs  = "AMR"
+ message_vgd  = "AMR"
+ message_vgb  = "AMR"
+ message_vsb  = "AMR"
+ message_vdb  = "AMR"
+ param        = "vth"
+ device       = device
model ovcheck_1 ovcheckva_mos2
+ tmin=global_tmin tdelay=global_tdelay vballmsg=global_vballmsg stop=global_stop
+ tmaxfrac=tmaxfrac1
+ vhigh_ds_on  = 1.71
+ vhigh_ds_off = 1.88
+ vhigh_gc     = 1.97
+ vlow_gc      = -1.97
+ vhigh_gb_on  = ap_no_check
+ vlow_gb_on   = -ap_no_check
+ param        = "vth"
+ device       = device
model ovcheck_2 ovcheckva_mos2
+ tmin=global_tmin tdelay=global_tdelay vballmsg=global_vballmsg stop=global_stop
+ tmaxfrac=tmaxfrac2
+ vhigh_ds_on  = 1.65
+ vhigh_ds_off = 1.82
+ vhigh_gc     = 1.65
+ vlow_gc      = -1.65
+ vhigh_gb_on  = 3.30
+ vlow_gb_on   = -2.07
+ vfwd_jun_on  = ap_no_check
+ vrev_jun_on  = -3.30
+ vfwd_jun_off = ap_no_check
+ vrev_jun_off = -3.30
+ param        = "vth"
+ device       = device
endsection soacheck_nmos_core_shared

section soacheck_pmos_core_shared
model ovcheck_0 ovcheckva_mos2
+ tmin=global_tmin tdelay=global_tdelay vballmsg=global_vballmsg stop=global_stop
+ tmaxfrac=tmaxfrac0
+ vhigh_ds_on  = 2.08   	 
+ vhigh_ds_off = 3.00
+ vhigh_gc     = 1.95
+ vlow_gc      = -1.95
+ vhigh_gb_on  = ap_no_check
+ vlow_gb_on   = -ap_no_check
+ message_vds  = "AMR"
+ message_vgs  = "AMR"
+ message_vgd  = "AMR"
+ message_vgb  = "AMR"
+ message_vsb  = "AMR"
+ message_vdb  = "AMR"
+ param        = "vth"
+ device       = device
+ pmosvthsign  = -1
model ovcheck_1 ovcheckva_mos2
+ tmin=global_tmin tdelay=global_tdelay vballmsg=global_vballmsg stop=global_stop
+ tmaxfrac=tmaxfrac1
+ vhigh_ds_on  = 1.89
+ vhigh_ds_off = 2.07
+ vhigh_gc     = 1.85
+ vlow_gc      = -1.85
+ vhigh_gb_on  = ap_no_check
+ vlow_gb_on   = -ap_no_check
+ param        = "vth"
+ device       = device
+ pmosvthsign  = -1
model ovcheck_2 ovcheckva_mos2
+ tmin=global_tmin tdelay=global_tdelay vballmsg=global_vballmsg stop=global_stop
+ tmaxfrac=tmaxfrac2
+ vhigh_ds_on  = 1.65
+ vhigh_ds_off = 1.82
+ vhigh_gc     = 1.65
+ vlow_gc      = -1.65
+ vhigh_gb_on  = 3.30
+ vlow_gb_on   = -1.95
+ vfwd_jun_on  = ap_no_check
+ vrev_jun_on  = -3.30
+ vfwd_jun_off = ap_no_check
+ vrev_jun_off = -3.30
+ param        = "vth"
+ device       = device
+ pmosvthsign  = -1
endsection soacheck_pmos_core_shared

section soacheck_nmos_5v_shared
model ovcheck_0 ovcheckva_mos2
+ tmin=global_tmin tdelay=global_tdelay vballmsg=global_vballmsg stop=global_stop
+ tmaxfrac=tmaxfrac0
+ vhigh_ds_on  = 5.77   	 
+ vhigh_ds_off = 6.35
+ vhigh_gc     = 7.10
+ vlow_gc      = -7.10
+ vhigh_gb_on  = ap_no_check
+ vlow_gb_on   = -ap_no_check
+ message_vds  = "AMR"
+ message_vgs  = "AMR"
+ message_vgd  = "AMR"
+ message_vgb  = "AMR"
+ message_vsb  = "AMR"
+ message_vdb  = "AMR"
+ param        = "vth"
+ device       = device
model ovcheck_1 ovcheckva_mos2
+ tmin=global_tmin tdelay=global_tdelay vballmsg=global_vballmsg stop=global_stop
+ tmaxfrac=tmaxfrac1
+ vhigh_ds_on  = 5.61
+ vhigh_ds_off = 6.17
+ vhigh_gc     = 6.65
+ vlow_gc      = -6.65
+ vhigh_gb_on  = ap_no_check
+ vlow_gb_on   = -ap_no_check
+ param        = "vth"
+ device       = device
model ovcheck_2 ovcheckva_mos2
+ tmin=global_tmin tdelay=global_tdelay vballmsg=global_vballmsg stop=global_stop
+ tmaxfrac=tmaxfrac2
+ vhigh_ds_on  = 5.50
+ vhigh_ds_off = 6.05
+ vhigh_gc     = 5.50
+ vlow_gc      = -5.50
+ vhigh_gb_on  = 7.10
+ vlow_gb_on   = -7.10
+ vfwd_jun_on  = ap_no_check
+ vrev_jun_on  = -8.0
+ vfwd_jun_off = ap_no_check
+ vrev_jun_off = -8.0
+ param        = "vth"
+ device       = device
endsection soacheck_nmos_5v_shared

section soacheck_pmos_5v_shared
model ovcheck_0 ovcheckva_mos2
+ tmin=global_tmin tdelay=global_tdelay vballmsg=global_vballmsg stop=global_stop
+ tmaxfrac=tmaxfrac0
+ vhigh_ds_on  = 5.91   	 
+ vhigh_ds_off = 6.51
+ vhigh_gc     = 6.92
+ vlow_gc      = -6.92
+ vhigh_gb_on  = ap_no_check
+ vlow_gb_on   = -ap_no_check
+ message_vds  = "AMR"
+ message_vgs  = "AMR"
+ message_vgd  = "AMR"
+ message_vgb  = "AMR"
+ message_vsb  = "AMR"
+ message_vdb  = "AMR"
+ param        = "vth"
+ device       = device
+ pmosvthsign  = -1
model ovcheck_1 ovcheckva_mos2
+ tmin=global_tmin tdelay=global_tdelay vballmsg=global_vballmsg stop=global_stop
+ tmaxfrac=tmaxfrac1
+ vhigh_ds_on  = 5.64
+ vhigh_ds_off = 6.20
+ vhigh_gc     = 6.60
+ vlow_gc      = -6.60
+ vhigh_gb_on  = ap_no_check
+ vlow_gb_on   = -ap_no_check
+ param        = "vth"
+ device       = device
+ pmosvthsign  = -1
model ovcheck_2 ovcheckva_mos2
+ tmin=global_tmin tdelay=global_tdelay vballmsg=global_vballmsg stop=global_stop
+ tmaxfrac=tmaxfrac2
+ vhigh_ds_on  = 5.50
+ vhigh_ds_off = 6.05
+ vhigh_gc     = 5.50
+ vlow_gc      = -5.50
+ vhigh_gb_on  = 6.92
+ vlow_gb_on   = -6.92
+ vfwd_jun_on  = ap_no_check
+ vrev_jun_on  = -6.8
+ vfwd_jun_off = ap_no_check
+ vrev_jun_off = -6.8
+ param        = "vth"
+ device       = device
+ pmosvthsign  = -1
endsection soacheck_pmos_5v_shared


// Metal resistors part

section rm_10hv_soa_shared // shared SOA code for all metal resistors
parameters
+ weff_soa = w + dw_um // in um; used for resistance estimate
+ reff_soa = rsh_soa * leff_soa / weff_soa
parameters // Idc, IPeak, Irms
+ vmax_rm_dc = jdc_rm * weff1_soa * reff_soa
+ vmax_rm_peak = jpeak_rm * weff1_soa * reff_soa
+ irms_max = 1.0e-3 * sqrt(jdc_rms * weff1_soa * (weff1_soa + dw_rms)) // in Ampere 
model irms_rm ovcheck
+ tmin=global_tmin tdelay=global_tdelay vballmsg=global_vballmsg stop=global_stop
+ tmaxfrac=tmaxfrac0
+ vlow=-1.0  vhigh=dtmax_rm branch1="V(dt)" message1="Irms: self heating exceeds 5 degC."
model idc_rm ovcheck
+ tmin=global_tmin tdelay=global_tdelay vballmsg=global_vballmsg stop=global_stop
+ tmaxfrac=tmaxfrac0
+ vlow=-vmax_rm_dc vhigh=vmax_rm_dc branch1="V(d,s)"
+ message1="Max. dc-current exceeded (violations are allowed for limited time)." 
model ipeak_rm ovcheck
+ tmin=global_tmin tdelay=global_tdelay vballmsg=global_vballmsg stop=global_stop
+ tmaxfrac=tmaxfrac0
+ vlow=-vmax_rm_peak vhigh=vmax_rm_peak branch1="V(d,s)"
+ message1="Max. peak current exceeded (violations <100ns may be allowed)." 
sh_dummy (d s dt) shmonitor_nofeedback
+ r=reff_soa
+ irms_max=irms_max
+ dtmax=dtmax_rm
+ theat=theat
soacheck_rms (dt 0) irms_rm
soacheck_dc (d s) idc_rm
soacheck_peak (d s) ipeak_rm
endsection rm_10hv_soa_shared


// Poly resistors part

section rpoly_10hv_voltage_soa_shared // shared voltage SOA code for all poly resistors
model ovcheck_1 ovcheck6
+ tmin=global_tmin tdelay=global_tdelay vballmsg=global_vballmsg stop=global_stop
+ tmaxfrac=tmaxfrac0
+ vlow1=-45         vhigh1=45           branch1="V(d,well)"
+ vlow2=-45         vhigh2=45           branch2="V(s,well)"
+ vlow3=-70         vhigh3=120          branch3="V(well,sub)"
soacheck1 (d well s well well sub 0 0 0 0 0 0) ovcheck_1
endsection rpoly_10hv_voltage_soa_shared

section rpoly_10hv_current_soa_shared // shared current SOA code for all poly resistors
model ovcheck_2 parcheckva3
+ tmin=global_tmin tdelay=global_tdelay vballmsg=global_vballmsg stop=global_stop
+ tmaxfrac=tmaxfrac0
+ param="ibody"
+ plow=-jmax_poly   phigh=jmax_poly     message1="Max. peak current exceeded."
model ovcheck_3 parcheckva3
+ tmin=100n tdelay=global_tdelay vballmsg=global_vballmsg stop=global_stop
+ tmaxfrac=tmaxfrac0
+ param="ibody"
+ plow=-jmax_poly_100ns phigh=jmax_poly_100ns message1="Max. dc current exceeded (violations <100ns may be allowed)."
model ovcheck_4 parcheckva3
+ tmin=global_tmin tdelay=global_tdelay vballmsg=global_vballmsg stop=global_stop
+ tmaxfrac=tmaxfrac3
+ param="ibody"
+ plow=-jmax_poly_sh   phigh=jmax_poly_sh     message1="Self-heating current exceeded."
endsection rpoly_10hv_current_soa_shared

section rpoly_10hv_current_simple_soa_shared // shared current SOA code for all simple poly resistors
parameters
+ rsh_soa         = rsh0
+ leff_soa        = l + dl_um
+ weff_soa        = w + dw_um
+ reff_soa  = rsh_soa * leff_soa / weff_soa
parameters // Idc, IPeak
+ vmax_poly_dc   = jmax_poly * reff_soa
+ vmax_poly_peak = jmax_poly_100ns * reff_soa
+ vmax_poly_sh   = jmax_poly_sh * reff_soa
model idc_poly ovcheck
+ tmin=global_tmin tdelay=global_tdelay vballmsg=global_vballmsg stop=global_stop
+ tmaxfrac=tmaxfrac0
+ vlow=-vmax_poly_dc vhigh=vmax_poly_dc branch1="V(d,s)"
+ message1="Max. current exceeded." 
model ipeak_poly ovcheck
+ tmin=100n tdelay=global_tdelay vballmsg=global_vballmsg stop=global_stop
+ tmaxfrac=tmaxfrac0
+ vlow=-vmax_poly_peak vhigh=vmax_poly_peak branch1="V(d,s)"
+ message1="Max. current exceeded (violations <100ns may be allowed)." 
model ish_poly ovcheck
+ tmin=global_tmin tdelay=global_tdelay vballmsg=global_vballmsg stop=global_stop
+ tmaxfrac=tmaxfrac3
+ vlow=-vmax_poly_sh vhigh=vmax_poly_sh branch1="V(d,s)"
+ message1="Self-heating current exceeded." 
soacheck_dc (d s) idc_poly
soacheck_peak (d s) ipeak_poly
soacheck_sh (d s) ish_poly
endsection rpoly_10hv_current_simple_soa_shared



//HCI-TDDB part

section hci_tddb_atype_soa_shared
parameters soa_hcitddb_vdswc = soa_hcitddb_vdsref + soa_hcitddb_wfac * ln(1e-6 * w / soa_hcitddb_wref) + soa_hcitddb_tfac * (1 / (temp + tcelsius0) - 1 / soa_hcitddb_tref)
model hcitddb ovcheckva_ldmos_hci_tddb
+ tmin=global_tmin tdelay=global_tdelay vballmsg=global_vballmsg stop=global_stop
+ message1="HCI-TDDB risk; use Life Time Estimator for accurate assessment."
+ tmaxfrac=tmaxfrac0
+ a_high=soa_hcitddb_a
+ b=soa_hcitddb_b
+ vds_wc=soa_hcitddb_vdswc
+ vgs_wc=soa_hcitddb_vgswc
+ branch1="V(d,s)"
+ device=device
soacheck_hcitddb (d g s) hcitddb device=device
endsection hci_tddb_atype_soa_shared

section hci_tddb_btype_soa_shared
parameters 
+ soa_hcitddb_woffset    = soa_hcitddb_wfac * ln(1e-6 * w / soa_hcitddb_wref)
+ soa_hcitddb_b0_eff     = soa_hcitddb_b0 + soa_hcitddb_woffset
+ soa_hcitddb_b1_eff     = soa_hcitddb_b1 + soa_hcitddb_woffset
+ soa_hcitddb_b2_eff     = soa_hcitddb_b2 + soa_hcitddb_woffset
+ soa_hcitddb_b3_eff     = soa_hcitddb_b3 + soa_hcitddb_woffset
+ soa_hcitddb_b4_eff     = soa_hcitddb_b4 + soa_hcitddb_woffset
model hcitddb ovcheckva_pwl
+ tmin=global_tmin tdelay=global_tdelay vballmsg=global_vballmsg stop=global_stop
+ message1="HCI-TDDB risk; use Life Time Estimator for accurate assessment."
+ branch1="V(s,d)"
+ tmaxfrac=tmaxfrac0
+ device=device
+ vlim1=-soa_hcitddb_b0_eff   vc1=-soa_hcitddb_p1
+ vlim2=-soa_hcitddb_b1_eff   vc2=-soa_hcitddb_p2
+ vlim3=-soa_hcitddb_b2_eff   vc3=-soa_hcitddb_p3
+ vlim4=-soa_hcitddb_b3_eff   vc4=-soa_hcitddb_p4
+ vlim5=-soa_hcitddb_b4_eff   vc5=-soa_hcitddb_p5
soacheck_hcitddb (s d s g) hcitddb device=device
endsection hci_tddb_btype_soa_shared


///////////////////
// Device SOA model
///////////////////

// LV n-type MOSFET

section nmos_10hv_soa
if (enable_soa == 1) {
include "soachecks_top.scs" section=soacheck_nmos_core_shared
include "soachecks_top.scs" section=soacheck_mosfet_sub_shared
soacheck0 (d g s b) ovcheck_0 type=1 inst2probe="mnmos_10hv_i" device="nmos"
soacheck1 (d g s b) ovcheck_1 type=1 inst2probe="mnmos_10hv_i" device="nmos"
soacheck2 (d g s b) ovcheck_2 type=1 inst2probe="mnmos_10hv_i" device="nmos"
soacheck3 (d sub s sub b sub 0 0 0 0 0 0) ovcheck_mosfet_sub
}
if (enable_risk_assessment == 1) {
include "soachecks_top.scs" section=soacheck_mos_core_oxrisk_shared
soacheck4 (g b g s g d 0 0 0 0 0 0) ovcheck_mos_core_oxrisk
}
endsection nmos_10hv_soa

section nmos_ll_10hv_soa
if (enable_soa == 1) {
include "soachecks_top.scs" section=soacheck_nmos_core_shared
include "soachecks_top.scs" section=soacheck_mosfet_sub_shared
soacheck0 (d g s b) ovcheck_0 type=1 inst2probe="mnmos_ll_10hv_i" device="nmos_ll"
soacheck1 (d g s b) ovcheck_1 type=1 inst2probe="mnmos_ll_10hv_i" device="nmos_ll"
soacheck2 (d g s b) ovcheck_2 type=1 inst2probe="mnmos_ll_10hv_i" device="nmos_ll"
soacheck3 (d sub s sub b sub 0 0 0 0 0 0) ovcheck_mosfet_sub
}
if (enable_risk_assessment == 1) {
include "soachecks_top.scs" section=soacheck_mos_core_oxrisk_shared
soacheck4 (g b g s g d 0 0 0 0 0 0) ovcheck_mos_core_oxrisk
}
endsection nmos_ll_10hv_soa

section nmos_ull_10hv_soa
if (enable_soa == 1) {
include "soachecks_top.scs" section=soacheck_nmos_core_shared
include "soachecks_top.scs" section=soacheck_mosfet_sub_shared
soacheck0 (d g s b) ovcheck_0 type=1 inst2probe="mnmos_ull_10hv_i" device="nmos_ull"
soacheck1 (d g s b) ovcheck_1 type=1 inst2probe="mnmos_ull_10hv_i" device="nmos_ull"
soacheck2 (d g s b) ovcheck_2 type=1 inst2probe="mnmos_ull_10hv_i" device="nmos_ull"
soacheck3 (d sub s sub b sub 0 0 0 0 0 0) ovcheck_mosfet_sub
}
if (enable_risk_assessment == 1) {
include "soachecks_top.scs" section=soacheck_mos_core_oxrisk_shared
soacheck4 (g b g s g d 0 0 0 0 0 0) ovcheck_mos_core_oxrisk
}
endsection nmos_ull_10hv_soa

section nmos_ana_10hv_soa
parameters
+ soa_hv_vmax = 3
+ soa_hv_vmax_oxrisk = 2.4
if (enable_soa == 1) {
model ovcheck_1 ovcheck6
+ tmin=global_tmin tdelay=global_tdelay vballmsg=global_vballmsg stop=global_stop
+ tmaxfrac=tmaxfrac0
+ vlow1=-ap_gc_lv            vhigh1=ap_gc_lv          branch1="V(g,b)"
+ vlow2=-soa_hv_vmax         vhigh2=ap_gc_lv          branch2="V(g,s)"
+ vlow3=-soa_hv_vmax         vhigh3=ap_gc_lv          branch3="V(g,d)"
+ vlow4=-ap_fwd_hv   	     vhigh4=soa_hv_vmax       branch4="V(s,b)"
+ vlow5=-ap_no_check         vhigh5=soa_hv_vmax       branch5="V(d,b)"
+ vlow6=-soa_hv_vmax         vhigh6=soa_hv_vmax       branch6="V(d,s)"
soacheck1 (g b g s g d s b d b d s) ovcheck_1
include "soachecks_top.scs" section=soacheck_mosfet_sub_shared
soacheck3 (d sub s sub b sub 0 0 0 0 0 0) ovcheck_mosfet_sub
}
if (enable_risk_assessment == 1) {
model ovcheck_4 ovcheck6
+ tmin=global_tmin tdelay=global_tdelay vballmsg=global_vballmsg stop=global_stop
+ tmaxfrac=tmaxfrac3
+ vlow1=-ap_gc_lv_oxrisk    	   vhigh1=ap_gc_lv_oxrisk           branch1="V(g,b)"      message1="Vgb_OXrisk"
+ vlow2=-soa_hv_vmax_oxrisk        vhigh2=ap_gc_lv_oxrisk           branch2="V(g,s)"      message2="Vgs_OXrisk"       
+ vlow3=-soa_hv_vmax_oxrisk        vhigh3=ap_gc_lv_oxrisk           branch3="V(g,d)"      message3="Vgd_OXrisk"       
soacheck4 (g b g s g d 0 0 0 0 0 0) ovcheck_4
}
endsection nmos_ana_10hv_soa

section nmos3_zvt_10hv_soa
parameters
+ soa_hv_vmax = 3
+ soa_hv_vmax_oxrisk = 2.4
if (enable_soa == 1) {
model ovcheck_1 ovcheck6
+ tmin=global_tmin tdelay=global_tdelay vballmsg=global_vballmsg stop=global_stop
+ tmaxfrac=tmaxfrac0
+ vlow1=-ap_gc_lv            vhigh1=ap_gc_lv          branch1="V(g,b)"
+ vlow2=-ap_gc_lv            vhigh2=ap_gc_lv          branch2="V(g,s)"
+ vlow3=-soa_hv_vmax         vhigh3=ap_gc_lv          branch3="V(g,d)"
+ vlow4=-ap_fwd_hv           vhigh4=ap_gc_lv          branch4="V(s,b)"
+ vlow5=-ap_no_check         vhigh5=soa_hv_vmax       branch5="V(d,b)"
+ vlow6=-soa_hv_vmax	     vhigh6=soa_hv_vmax       branch6="V(d,s)"
soacheck1 (g b g s g d s b d b d s) ovcheck_1
include "soachecks_top.scs" section=soacheck_mosfet_sub_shared
soacheck3 (d sub s sub b sub 0 0 0 0 0 0) ovcheck_mosfet_sub
}
if (enable_risk_assessment == 1) {
model ovcheck_mos_zvt_oxrisk ovcheck6
+ tmin=global_tmin tdelay=global_tdelay vballmsg=global_vballmsg stop=global_stop
+ tmaxfrac=tmaxfrac3
+ vlow1=-ap_gc_lv_oxrisk       vhigh1=ap_gc_lv_oxrisk           branch1="V(g,b)"      message1="Vgb_OXrisk"
+ vlow2=-ap_gc_lv_oxrisk       vhigh2=ap_gc_lv_oxrisk           branch2="V(g,s)"      message2="Vgs_OXrisk"       
+ vlow3=-soa_hv_vmax_oxrisk    vhigh3=soa_hv_vmax_oxrisk        branch3="V(g,d)"      message3="Vgd_OXrisk"       
soacheck4 (g b g s g d 0 0 0 0 0 0) ovcheck_mos_zvt_oxrisk
}
endsection nmos3_zvt_10hv_soa


// LV p-type MOSFET

section pmos_10hv_soa
if (enable_soa == 1) {
include "soachecks_top.scs" section=soacheck_pmos_core_shared
include "soachecks_top.scs" section=soacheck_mosfet_sub_shared
soacheck0 (d g s b) ovcheck_0 type=-1 inst2probe="mpmos_10hv_i" device="pmos"
soacheck1 (d g s b) ovcheck_1 type=-1 inst2probe="mpmos_10hv_i" device="pmos"
soacheck2 (d g s b) ovcheck_2 type=-1 inst2probe="mpmos_10hv_i" device="pmos"
soacheck3 (d sub s sub b sub 0 0 0 0 0 0) ovcheck_mosfet_sub
}
if (enable_risk_assessment == 1) {
include "soachecks_top.scs" section=soacheck_mos_core_oxrisk_shared
soacheck4 (g b g s g d 0 0 0 0 0 0) ovcheck_mos_core_oxrisk
}
endsection pmos_10hv_soa

section pmos_ll_10hv_soa
if (enable_soa == 1) {
include "soachecks_top.scs" section=soacheck_pmos_core_shared
include "soachecks_top.scs" section=soacheck_mosfet_sub_shared
soacheck0 (d g s b) ovcheck_0 type=-1 inst2probe="mpmos_ll_10hv_i" device="pmos_ll"
soacheck1 (d g s b) ovcheck_1 type=-1 inst2probe="mpmos_ll_10hv_i" device="pmos_ll"
soacheck2 (d g s b) ovcheck_2 type=-1 inst2probe="mpmos_ll_10hv_i" device="pmos_ll"
soacheck3 (d sub s sub b sub 0 0 0 0 0 0) ovcheck_mosfet_sub
}
if (enable_risk_assessment == 1) {
include "soachecks_top.scs" section=soacheck_mos_core_oxrisk_shared
soacheck4 (g b g s g d 0 0 0 0 0 0) ovcheck_mos_core_oxrisk
}
endsection pmos_ll_10hv_soa

section pmos_ull_10hv_soa
if (enable_soa == 1) {
include "soachecks_top.scs" section=soacheck_pmos_core_shared
include "soachecks_top.scs" section=soacheck_mosfet_sub_shared
soacheck0 (d g s b) ovcheck_0 type=-1 inst2probe="mpmos_ull_10hv_i" device="pmos_ull"
soacheck1 (d g s b) ovcheck_1 type=-1 inst2probe="mpmos_ull_10hv_i" device="pmos_ull"
soacheck2 (d g s b) ovcheck_2 type=-1 inst2probe="mpmos_ull_10hv_i" device="pmos_ull"
soacheck3 (d sub s sub b sub 0 0 0 0 0 0) ovcheck_mosfet_sub
}
if (enable_risk_assessment == 1) {
include "soachecks_top.scs" section=soacheck_mos_core_oxrisk_shared
soacheck4 (g b g s g d 0 0 0 0 0 0) ovcheck_mos_core_oxrisk
}
endsection pmos_ull_10hv_soa

section pmos_ana_10hv_soa
parameters
+ soa_hv_vmax = 3
+ soa_hv_vmax_oxrisk = 2.4
if (enable_soa == 1) {
model ovcheck_1 ovcheck6
+ tmin=global_tmin tdelay=global_tdelay vballmsg=global_vballmsg stop=global_stop
+ tmaxfrac=tmaxfrac0
+ vlow1=-ap_gc_lv        vhigh1=ap_gc_lv             branch1="V(b,g)"
+ vlow2=-soa_hv_vmax     vhigh2=ap_gc_lv             branch2="V(s,g)"
+ vlow3=-soa_hv_vmax     vhigh3=ap_gc_lv             branch3="V(d,g)"
+ vlow4=-ap_fwd_hv       vhigh4=soa_hv_vmax          branch4="V(b,s)"
+ vlow5=-ap_no_check     vhigh5=soa_hv_vmax          branch5="V(b,d)"
+ vlow6=-soa_hv_vmax     vhigh6=soa_hv_vmax          branch6="V(s,d)"
soacheck1 (b g s g d g b s b d s d) ovcheck_1
include "soachecks_top.scs" section=soacheck_mosfet_sub_shared
soacheck3 (d sub s sub b sub 0 0 0 0 0 0) ovcheck_mosfet_sub
}
if (enable_risk_assessment == 1) {
model ovcheck_4 ovcheck6
+ tmin=global_tmin tdelay=global_tdelay vballmsg=global_vballmsg stop=global_stop
+ tmaxfrac=tmaxfrac3
+ vlow1=-ap_gc_lv_oxrisk    	   vhigh1=ap_gc_lv_oxrisk           branch1="V(b,g)"      message1="Vbg_OXrisk"
+ vlow2=-soa_hv_vmax_oxrisk        vhigh2=ap_gc_lv_oxrisk           branch2="V(s,g)"      message2="Vsg_OXrisk"       
+ vlow3=-soa_hv_vmax_oxrisk        vhigh3=ap_gc_lv_oxrisk           branch3="V(d,g)"      message3="Vdg_OXrisk"       
soacheck4 (b g s g d g 0 0 0 0 0 0) ovcheck_4
}
endsection pmos_ana_10hv_soa


// 5V MOSFET

section nmos5_10hv_soa
if (enable_soa == 1) {
include "soachecks_top.scs" section=soacheck_nmos_5v_shared
include "soachecks_top.scs" section=soacheck_mosfet_sub_shared
soacheck0 (d g s b) ovcheck_0 type=1 inst2probe="mnmos5_10hv_i" device="nmos5"
soacheck1 (d g s b) ovcheck_1 type=1 inst2probe="mnmos5_10hv_i" device="nmos5"
soacheck2 (d g s b) ovcheck_2 type=1 inst2probe="mnmos5_10hv_i" device="nmos5"
soacheck3 (d sub s sub b sub 0 0 0 0 0 0) ovcheck_mosfet_sub
}
if (enable_risk_assessment == 1) {
include "soachecks_top.scs" section=soacheck_mos_5v_oxrisk_shared
soacheck4 (g b g s g d 0 0 0 0 0 0) ovcheck_mos_5v_oxrisk
}
endsection nmos5_10hv_soa

section pmos5_10hv_soa
if (enable_soa == 1) {
include "soachecks_top.scs" section=soacheck_pmos_5v_shared
include "soachecks_top.scs" section=soacheck_mosfet_sub_shared
soacheck0 (d g s b) ovcheck_0 type=-1 inst2probe="mpmos5_10hv_i" device="pmos5"
soacheck1 (d g s b) ovcheck_1 type=-1 inst2probe="mpmos5_10hv_i" device="pmos5"
soacheck2 (d g s b) ovcheck_2 type=-1 inst2probe="mpmos5_10hv_i" device="pmos5"
soacheck3 (d sub s sub b sub 0 0 0 0 0 0) ovcheck_mosfet_sub
}
if (enable_risk_assessment == 1) {
include "soachecks_top.scs" section=soacheck_mos_5v_oxrisk_shared
soacheck4 (g b g s g d 0 0 0 0 0 0) ovcheck_mos_5v_oxrisk
}
endsection pmos5_10hv_soa


// Capacitors

section cglv_10hv_soa
if (enable_soa == 1) {
include "soachecks_top.scs" section=soacheck_cap_sub_shared
model ovcheck_0 ovcheck
+ tmin=global_tmin tdelay=global_tdelay vballmsg=global_vballmsg stop=global_stop
+ tmaxfrac=tmaxfrac0
+ vlow=-1.95        vhigh=1.95           branch1="V(t,nw)"          message1= "AMR"
model ovcheck_1 ovcheck
+ tmin=global_tmin tdelay=global_tdelay vballmsg=global_vballmsg stop=global_stop
+ tmaxfrac=tmaxfrac1
+ vlow=-1.85        vhigh=1.85           branch1="V(t,nw)"
model ovcheck_2 ovcheck
+ tmin=global_tmin tdelay=global_tdelay vballmsg=global_vballmsg stop=global_stop
+ tmaxfrac=tmaxfrac2
+ vlow=-1.65        vhigh=1.65           branch1="V(t,nw)"
soacheck0 (t nw) ovcheck_0
soacheck1 (t nw) ovcheck_1
soacheck2 (t nw) ovcheck_2
soacheck3 (nw sub) ovcheck_cap_sub
}
if (enable_risk_assessment == 1) {
include "soachecks_top.scs" section=soacheck_cap_low_oxrisk_shared
soacheck4 (t nw) ovcheck_cap_low_oxrisk
}
endsection cglv_10hv_soa

section cghv_10hv_soa
if (enable_soa == 1) {
include "soachecks_top.scs" section=soacheck_cap_sub_shared
model ovcheck_0 ovcheck
+ tmin=global_tmin tdelay=global_tdelay vballmsg=global_vballmsg stop=global_stop
+ tmaxfrac=tmaxfrac0
+ vlow=-6.92        vhigh=6.92           branch1="V(t,nw)"          message1= "AMR"
model ovcheck_1 ovcheck
+ tmin=global_tmin tdelay=global_tdelay vballmsg=global_vballmsg stop=global_stop
+ tmaxfrac=tmaxfrac1
+ vlow=-6.6         vhigh=6.6            branch1="V(t,nw)"
model ovcheck_2 ovcheck
+ tmin=global_tmin tdelay=global_tdelay vballmsg=global_vballmsg stop=global_stop
+ tmaxfrac=tmaxfrac2
+ vlow=-5.5         vhigh=5.5            branch1="V(t,nw)"
soacheck0 (t nw) ovcheck_0
soacheck1 (t nw) ovcheck_1
soacheck2 (t nw) ovcheck_2
soacheck3 (nw sub) ovcheck_cap_sub
}
if (enable_risk_assessment == 1) {
include "soachecks_top.scs" section=soacheck_cap_mid_oxrisk_shared
soacheck4 (t nw) ovcheck_cap_mid_oxrisk
}
endsection cghv_10hv_soa

section cdp_10hv_soa